LTspice 24.0.12 for Windows
Circuit: * Z:\home\groben\Repos\GuitarAmp\Simulations\Draft1.asc
Start Time: Fri Jul 26 17:29:51 2024
solver = Normal
Maximum thread count: 24
tnom = 27
temp = 27
method = modified trap
Direct Newton iteration for .op point succeeded.
Total elapsed time: 0.045 seconds.

