LTspice 24.0.12 for Windows
Circuit: * Z:\home\groben\Repos\GuitarAmp\Simulations\Jfet_based_tonestack.asc
Start Time: Sun Jul 28 16:28:36 2024
solver = Normal
Maximum thread count: 24
tnom = 27
temp = 27
method = modified trap
WARNING: Less than two connections to node potmid.  This node is used by r11.
Direct Newton iteration for .op point succeeded.
N-Period=10
Fourier components of V(vout)
DC component:0.000198153

Harmonic	Frequency	 Fourier 	Normalized	 Phase  	Normalized
 Number 	  [Hz]   	Component	 Component	[degree]	Phase [deg]
    1   	 5.000e+3	 2.325e-4	 1.000e+0	   52.17°	    0.00°
    2   	 1.000e+4	 2.779e-5	 1.196e-1	  -23.91°	  -76.08°
    3   	 1.500e+4	 9.630e-6	 4.143e-2	 -115.72°	 -167.89°
    4   	 2.000e+4	 2.313e-5	 9.951e-2	  -72.11°	 -124.28°
    5   	 2.500e+4	 7.825e-5	 3.366e-1	  -68.92°	 -121.09°
    6   	 3.000e+4	 1.938e-5	 8.335e-2	  -17.39°	  -69.56°
    7   	 3.500e+4	 3.290e-6	 1.415e-2	  110.49°	   58.33°
    8   	 4.000e+4	 4.245e-6	 1.826e-2	  -50.97°	 -103.13°
    9   	 4.500e+4	 8.793e-6	 3.783e-2	  -94.86°	 -147.03°
   10   	 5.000e+4	 4.259e-6	 1.832e-2	 -138.79°	 -190.96°
Partial Harmonic Distortion: 38.532377%
Total Harmonic Distortion:   83167.606547%


Total elapsed time: 0.049 seconds.

